/*--------------------------------*- C++ -*----------------------------------*\
| =========                 |                                                 |
| \\      /  F ield         | OpenFOAM: The Open Source CFD Toolbox           |
|  \\    /   O peration     | Version:  2.2.1                                 |
|   \\  /    A nd           | Web:      www.OpenFOAM.org                      |
|    \\/     M anipulation  |                                                 |
\*---------------------------------------------------------------------------*/
FoamFile
{
    version     2.0;
    format      ascii;
    class       dictionary;
    object      blockMeshDict;
}
// * * * * * * * * * * * * * * * * * * * * * * * * * * * * * * * * * * * * * //

convertToMeters 0.001;
 
vertices
(
(0 0 0)
(13.51 0.58973 0)
(13.51 0.58973 45.066)
(0 0 45.066)
(13.51 -0.58973 0)
(13.51 -0.58973 45.066)
);
 
blocks
(
hex (0 4 1 0 3 5 2 3) (150 1 500) simpleGrading (1 1 1)
);
 
edges
(
);
 
boundary
(
     front
     { 
           type wedge;
           faces  
           (
               (0 1 2 3)
           );
      }
     back
     { 
           type wedge;
           faces  
           (
               (0 3 5 4)
           );
      }
     fixedWall
     { 
           type wall;
           faces  
           (
               (1 4 5 2)
           );
      }
     bottom
     { 
           type patch;
           faces  
           (
               (0 4 1 0)
           );
      }
     top
     { 
           type patch;
           faces  
           (
               (2 5 3 3)
           );
      }
     axis
     { 
           type empty;
           faces  
           (
               (0 3 3 0)
           );
      }
);
 
mergePatchPairs
(
);


// ************************************************************************* //
